case1354.py
# This file was automatically generated from case24.txt
# Do not modify manually

from numpy import array

def case1354():
    ppc = {'version': '2'}

    ppc['baseMVA'] = 100.0
    ppc['bus'] = array([
        [1,1,151,48.8,0,4.69,0,1,0,220,5,1.1],
        [2,1,171.41,23.4,0,2.1,0,1,0,220,5,1.1],
        [3,1,134,24.7,0,12.44,0,1,0,220,5,1.1],
        [4,1,161.2,39.3,0,30.71,0,1,0,220,5,1.1],
        [5,1,0,0,0,0.85,0,1,0,220,5,1.1],
        [6,1,167.3,54.8,0,110.54,0,1,0,380,5,1.1],
        [7,1,152.9,49.4,0,27.65,0,1,0,380,5,1.1],
        [8,1,0,0,0,7.27,0,1,0,220,5,1.1],
        [9,1,48.65,16.1,0,7.14,0,1,0,220,5,1.1],
        [10,1,0,0,0,2.31,0,1,0,380,5,1.1],
        [11,1,119.2,20.7,0,3.31,0,1,0,220,5,1.1],
        [12,1,363.25,115.39,0,3.95,0,1,0,220,5,1.1],
        [13,1,-8.4,28.66,0,3.49,0,1,0,220,5,1.1],
        [14,1,0,0,0,6.532711,0,1,0,380,5,1.1],
        [15,1,0,0,0,4.21,0,1,0,220,5,1.1],
        [16,1,704.53,-35.33,0,13.102834,0,1,0,380,5,1.1],
        [17,2,0,0,0,0,0,1,0,220,5,1.1],
        [18,1,23.73,12.7,0,0.52,0,1,0,220,5,1.1],
        [19,1,38.34,5.6,0,7.64,0,1,0,220,5,1.1],
        [20,1,32.34,12,0,6.1,0,1,0,220,5,1.1],
        [21,2,0,0,0,0,0,1,0,220,5,1.1],
        [22,1,147.76,32.73,0,8.34,0,1,0,220,5,1.1],
        [23,1,100.8,13.2,0,5.24,0,1,0,220,5,1.1],
        [24,1,370.5,-17,0,9.91,0,1,0,220,5,1.1],
        [25,1,0,0,0,2.42,0,1,0,220,5,1.1],
        [26,1,36.84,13.9,0,3.3,0,1,0,220,5,1.1],
        [27,1,73.14,21.55,0,8.52,0,1,0,220,5,1.1],
        [28,1,0,0,0,12.48,0,1,0,220,5,1.1],
        [29,1,39.74,11.8,0,1.44,0,1,0,220,5,1.1],
        [30,1,321.98,84.4,0,1.34,0,1,0,220,5,1.1],
        [31,1,155.6,54.7,0,2.21,0,1,0,220,5,1.1],
        [32,1,105.2,0.1,0,7.36,0,1,0,220,5,1.1],
        [33,1,69.83,15.12,0,2.23,0,1,0,220,5,1.1],
        [34,2,0,0,0,0,0,1,0,380,5,1.1],
        [35,1,0,0,0,1.15,0,1,0,220,5,1.1],
        [36,1,119.6,29.6,0,5.34,0,1,0,220,5,1.1],
        [37,1,27.33,11.9,0,1.17,0,1,0,220,5,1.1],
        [38,1,13.82,1.4,0,0.7,0,1,0,220,5,1.1],
        [39,1,103,12,0,0.63,0,1,0,220,5,1.1],
        [40,1,0,0,0,4.76,0,1,0,220,5,1.1],
        [41,1,163.1,46.3,0,10.6,0,1,0,220,5,1.1],
        [42,1,524.5,43,0,6.85,0,1,0,220,5,1.1],
        [43,2,0,0,0,0,0,1,0,220,5,1.1],
        [44,1,197.5,48.3,0,0.71,0,1,0,220,5,1.1],
        [45,1,110.4,26.2,0,5.62,0,1,0,220,5,1.1],
        [46,2,0,0,0,0,0,1,0,380,5,1.1],
        [47,1,65.17,-51.5,0,4.85,0,1,0,220,5,1.1],
        [48,1,56.5,36.29,0,3.08,0,1,0,220,5,1.1],
        [49,1,129.1,7.4,0,0.04,0,1,0,220,5,1.1],
        [50,1,170.89,50.38,0,6.44,0,1,0,220,5,1.1],
        [51,2,0,0,0,0,0,1,0,220,5,1.1],
        [52,1,70.68,13.5,0,6.96,0,1,0,220,5,1.1],
        [53,1,123.1,6.5,0,3.25,0,1,0,220,5,1.1],
        [54,1,0,0,0,68.517663,0,1,0,380,5,1.1],
        [55,1,0,0,0,2.45,0,1,0,220,5,1.1],
        [56,1,0,0,0,29.42,0,1,0,380,5,1.1],
        [57,2,0,0,0,0,0,1,0,380,5,1.1],
        [58,1,274.32,5.66,0,13.24,0,1,0,220,5,1.1],
        [59,1,20.52,4,0,2.77,0,1,0,220,5,1.1],
        [60,1,144.4,35.5,0,7.66,0,1,0,220,5,1.1],
        [61,1,0,0,0,1.96,0,1,0,220,5,1.1],
        [62,1,0,0,0,0.4,0,1,0,380,5,1.1],
        [63,1,57.46,17.1,0,1.61,0,1,0,220,5,1.1],
        [64,2,0,0,0,0,0,1,0,220,5,1.1],
        [65,1,118.5,20.4,0,2.57,0,1,0,220,5,1.1],
        [66,1,0,0,0,5.15,0,1,0,220,5,1.1],
        [67,1,0,0,0,1.97,0,1,0,220,5,1.1],
        [68,1,16.52,9,0,1.17,0,1,0,220,5,1.1],
        [69,1,0,0,0,0.32,0,1,0,220,5,1.1],
        [70,2,0,0,0,0,0,1,0,220,5,1.1],
        [71,1,0,0,0,0.67,0,1,0,220,5,1.1],
        [72,2,0,0,0,0,0,1,0,220,5,1.1],
        [73,1,67.57,17,0,5.75,0,1,0,220,5,1.1],
        [74,1,140.6,42.6,0,5.71,0,1,0,220,5,1.1],
        [75,1,33.24,4.4,0,24.54,0,1,0,380,5,1.1],
        [76,1,150.9,10.4,0,4.77,0,1,0,220,5,1.1],
        [77,1,0,0,0,5.67,0,1,0,220,5,1.1],
        [78,2,0,0,0,0,0,1,0,220,5,1.1],
        [79,2,0,0,0,0,0,1,0,220,5,1.1],
        [80,1,72.88,14.4,0,2.96,0,1,0,220,5,1.1],
        [81,2,0,0,0,0,0,1,0,220,5,1.1],
        [82,1,45.32,18.5,0,0.74,0,1,0,220,5,1.1],
        [83,1,258.4,66.7,0,5.87,0,1,0,220,5,1.1],
        [84,1,0,0,0,0.6,0,1,0,380,5,1.1],
        [85,1,-5.61,-2.79,0,150.93,0,1,0,380,5,1.1],
        [86,1,232.1,89.8,0,0.09,0,1,0,220,5,1.1],
        [87,2,0,0,0,0,0,1,0,220,5,1.1],
        [88,1,0,0,0,5.6,0,1,0,220,5,1.1],
        [89,1,83.99,21.2,0,5.36,0,1,0,220,5,1.1],
        [90,1,135.11,41,0,5.31,0,1,0,220,5,1.1],
        [91,1,0,0,0,23.554121,0,1,0,380,5,1.1],
        [92,1,400.3,189.9,0,0.53,0,1,0,220,5,1.1],
        [93,1,0,0,0,2.83,0,1,0,220,5,1.1],
        [94,1,69.58,16,0,3.03,0,1,0,220,5,1.1],
        [95,2,0,0,0,0,0,1,0,220,5,1.1],
        [96,1,0,0,0,18.63,0,1,0,220,5,1.1],
        [97,2,0,0,0,0,0,1,0,380,5,1.1],
        [98,1,0,0,0,7.85,0,1,0,220,5,1.1],
        [99,1,152.57,40,0,6.12,0,1,0,220,5,1.1],
        [100,1,343.9,141.9,0,5.55,0,1,0,220,5,1.1],
        [101,2,0,0,0,0,0,1,0,220,5,1.1],
        [102,2,0,0,0,0,0,1,0,220,5,1.1],
        [103,1,0,0,0,6.63,0,1,0,220,5,1.1],
        [104,2,0,0,0,0,0,1,0,220,5,1.1],
        [105,1,50.56,18,0,0.11,0,1,0,220,5,1.1],
        [106,2,0,0,0,0,0,1,0,220,5,1.1],
        [107,1,0,0,0,7.26,0,1,0,220,5,1.1],
        [108,1,124.5,29.6,0,15.4,0,1,0,220,5,1.1],
        [109,1,0,0,0,58.088687,0,1,0,380,5,1.1],
        [110,1,0,0,0,0.22,0,1,0,220,5,1.1],
        [111,2,0,0,0,0,0,1,0,380,5,1.1],
        [112,1,0,0,0,8.17514,0,1,0,380,5,1.1],
        [113,2,0,0,0,0,0,1,0,220,5,1.1],
        [114,2,0,0,0,0,0,1,0,380,5,1.1],
        [115,1,110,3.4,0,11.95,0,1,0,220,5,1.1],
        [116,1,108.89,-21.76,0,3.72,0,1,0,220,5,1.1],
        [117,1,192.5,78.3,0,6.65,0,1,0,220,5,1.1],
        [118,2,0,0,0,0,0,1,0,380,5,1.1],
        [119,1,0,0,0,9.1,0,1,0,220,5,1.1],
        [120,1,0,0,0,0.15,0,1,0,220,5,1.1],
        [121,1,82.69,20.1,0,1.36,0,1,0,220,5,1.1],
        [122,1,631.71,-54.16,0,7.534129,0,1,0,380,5,1.1],
        [123,1,0,0,0,0.05,0,1,0,220,5,1.1],
        [124,1,125.9,-0.5,0,0.21,0,1,0,220,5,1.1],
        [125,1,34.44,8.5,0,1.11,0,1,0,220,5,1.1],
        [126,1,62.07,14.7,0,4.84,0,1,0,220,5,1.1],
        [127,1,0,0,0,22.75,0,1,0,220,5,1.1],
        [128,1,0,0,0,9.46,0,1,0,220,5,1.1],
        [129,1,108.7,-12.15,0,37.11,0,1,0,380,5,1.1],
        [130,1,66.27,13.6,0,0.67,0,1,0,220,5,1.1],
        [131,1,0,0,0,108.728602,0,1,0,380,5,1.1],
        [132,1,88.5,16.5,0,146.44,0,1,0,380,5,1.1],
        [133,2,0,0,0,0,0,1,0,380,5,1.3],
        [134,1,14.71,4.6,0,7.88,0,1,0,220,5,1.1],
        [135,2,0,0,0,0,0,1,0,220,5,1.1],
        [136,2,0,0,0,0,0,1,0,220,5,1.1],
        [137,1,0,0,0,0.81,0,1,0,220,5,1.1],
        [138,1,44.55,0,0,4.78,0,1,0,220,5,1.1],
        [139,1,201.4,53,0,9.67,0,1,0,220,5,1.1],
        [140,1,-5.91,-2.33,0,30.393595,0,1,0,380,5,1.1],
        [141,1,26.33,5.3,0,4.31,0,1,0,220,5,1.1],
        [142,1,382.5,57.9,0,8.16,0,1,0,220,5,1.1],
        [143,1,34.64,0,0,0.91,0,1,0,220,5,1.1],
        [144,1,31.94,8.8,0,3.79,0,1,0,220,5,1.1],
        [145,2,0,0,0,0,0,1,0,380,5,1.1],
        [146,1,0,0,0,3.79,0,1,0,220,5,1.1],
        [147,1,0,0,0,0.1,0,1,0,220,5,1.1],
        [148,1,0,0,0,4.74,0,1,0,220,5,1.1],
        [149,1,277.86,58.95,0,182.880644,0,1,0,380,5,1.1],
        [150,2,0,0,0,0,0,1,0,220,5,1.1],
        [151,1,56.06,18.7,0,4.24,0,1,0,220,5,1.1],
        [152,2,0,0,0,0,0,1,0,380,5,1.1],
        [153,1,0,0,0,0.16,0,1,0,220,5,1.1],
        [154,2,0,0,0,0,0,1,0,220,5,1.1],
        [155,1,0,0,0,2.05,0,1,0,220,5,1.1],
        [156,2,0,0,0,0,0,1,0,220,5,1.1],
        [157,1,29.83,7.3,0,6.49,0,1,0,220,5,1.1],
        [158,1,0,0,0,1.1,0,1,0,220,5,1.1],
        [159,1,190.47,55.03,0,6.7,0,1,0,220,5,1.1],
        [160,1,16.22,2,0,0.71,0,1,0,220,5,1.1],
        [161,1,0,0,0,0.05,0,1,0,220,5,1.1],
        [162,1,32.84,0,0,1.41,0,1,0,220,5,1.1],
        [163,1,0,0,0,18.82,0,1,0,220,5,1.1],
        [164,1,12.41,3.9,0,2.23,0,1,0,220,5,1.1],
        [165,1,65.67,24,0,9.95,0,1,0,220,5,1.1],
        [166,1,112.4,13,0,3.99,0,1,0,220,5,1.1],
        [167,1,0,0,0,2.3,0,1,0,220,5,1.1],
        [168,1,86.6,23.4,0,0.39,0,1,0,220,5,1.1],
        [169,1,199.4,-19.9,0,6.68,0,1,0,220,5,1.1],
        [170,1,67.57,21.2,0,5.71,0,1,0,220,5,1.1],
        [171,1,30.93,6.6,0,9.09,0,1,0,220,5,1.1],
        [172,1,129.6,13.3,0,13.98,0,1,0,380,5,1.1],
        [173,1,0,0,0,30.637696,0,1,0,380,5,1.1],
        [174,1,114.1,23.5,0,1.08,0,1,0,220,5,1.1],
        [175,1,0,0,0,4.93,0,1,0,220,5,1.1],
        [176,1,0,0,0,1.72,0,1,0,220,5,1.1],
        [177,1,71.78,17.9,0,1.96,0,1,0,220,5,1.1],
        [178,2,0,0,0,0,0,1,0,380,5,1.3],
        [179,1,0,0,0,1.17,0,1,0,220,5,1.1],
        [180,1,348.93,26.47,0,9.36,0,1,0,380,5,1.1],
        [181,2,0,0,0,0,0,1,0,380,5,1.1],
        [182,1,0,0,0,10.73,0,1,0,220,5,1.1],
        [183,1,173,-21.3,0,5.93,0,1,0,220,5,1.1],
        [184,1,52.46,2.9,0,0.35,0,1,0,220,5,1.1],
        [185,2,0,0,0,0,0,1,0,220,5,1.1],
        [186,1,479,99.2,0,10.68,0,1,0,220,5,1.1],
        [187,1,0,0,0,4.34,0,1,0,220,5,1.1],
        [188,1,37.94,15.2,0,35.31,0,1,0,380,5,1.1],
        [189,1,0,0,0,0.98,0,1,0,220,5,1.1],
        [190,1,0,0,0,0.59,0,1,0,220,5,1.1],
        [191,2,0,0,0,0,0,1,0,220,5,1.1],
        [192,1,0,0,0,58.3,0,1,0,380,5,1.1],
        [193,2,0,0,0,0,0,1,0,220,5,1.1],
        [194,1,-3.29,-1.32,0,190.704588,0,1,0,380,5,1.1],
        [195,1,40.85,14.5,0,0.59,0,1,0,220,5,1.1],
        [196,1,145.2,21.4,0,1.09,0,1,0,220,5,1.1],
        [197,1,30.93,7.6,0,4.69,0,1,0,220,5,1.1],
        [198,1,0,0,0,2.14,0,1,0,220,5,1.1],
        [199,1,196.7,44.2,0,0.1,0,1,0,220,5,1.1],
        [200,1,11.91,2.9,0,5.27,0,1,0,220,5,1.1],
...
    ])
    ppc['gen'] = array([
        [17,666.665,133.865,440.32,-172.59,1,100,1,1000,333.33],
        [21,80,27.275,77.09,-22.54,1,100,1,160,0],
        [34,-53.59,59.31,183.92,-65.3,1,100,1,100,-207.18],
        [43,60,18.19,55.54,-19.16,1,100,1,120,0],
        [46,1333.335,314.335,926.35,-297.68,1,100,1,2000,666.67],
        [51,140,37.14,124.12,-49.84,1,100,1,280,0],
        [57,270,91.415,257.23,-74.4,1,100,1,540,0],
        [64,400,77.56,261.79,-106.67,1,100,1,600,200],
        [70,15.555,-0.44,18.47,-19.35,1,100,1,100,-68.89],
        [72,-130,5.425,17.88,-7.03,1,100,1,100,-360],
        [78,20,4.65,17.09,-7.79,1,100,1,40,0],
        [79,320,68.37,217.9,-81.16,1,100,1,480,160],
        [81,19.2,48.31,135.52,-38.9,1,100,1,100,-61.6],
        [87,40,13.855,38.77,-11.06,1,100,1,80,0],
        [95,120,30.925,105.69,-43.84,1,100,1,240,0],
        [97,60,13.945,51.3,-23.41,1,100,1,120,0],
        [101,-24.265,5.715,18.16,-6.73,1,100,1,100,-148.53],
        [102,16.79,1.505,12.37,-9.36,1,100,1,33.58,0],
        [104,40,11.855,36.75,-13.04,1,100,1,80,0],
        [106,-9.465,24.245,74.03,-25.54,1,100,1,100,-118.93],
        [111,1333.335,314.185,926.68,-298.31,1,100,1,2000,666.67],
        [113,100,34.415,96.64,-27.81,1,100,1,200,0],
        [114,666.665,134.26,440.67,-172.15,1,100,1,1000,333.33],
        [118,1600,361.75,1097.41,-373.91,1,100,1,2400,800],
        [133,1333.335,321.605,934.73,-291.52,1,100,1,2000,666.67],
        [135,60,17.605,55.02,-19.81,1,100,1,120,0],
        [136,100,27.2,89.55,-35.15,1,100,1,200,0],
        [145,600,112.24,387.88,-163.4,1,100,1,900,300],
        [150,60,17.515,54.91,-19.88,1,100,1,120,0],
        [152,800,182.77,550.69,-185.15,1,100,1,1200,400],
        [154,40,11.895,36.8,-13.01,1,100,1,80,0],
        [156,-32.77,13.23,38.05,-11.59,1,100,1,100,-165.54],
        [178,1333.335,293.585,906.61,-319.44,1,100,1,2000,666.67],
        [181,800,182.77,550.69,-185.15,1,100,1,1200,400],
        [185,-32.735,12.02,36.92,-12.88,1,100,1,100,-165.47],
        [191,60,19.705,57.03,-17.62,1,100,1,120,0],
        [193,-114.335,13.175,38.08,-11.73,1,100,1,100,-328.67],
        [203,-17.335,5.65,18.09,-6.79,1,100,1,100,-134.67],
        [205,40,12.815,37.72,-12.09,1,100,1,80,0],
        [210,40,11.48,36.4,-13.44,1,100,1,80,0],
        [233,40,12.745,37.66,-12.17,1,100,1,80,0],
        [239,40,12.815,37.74,-12.11,1,100,1,80,0],
        [244,1333.335,316.395,928.89,-296.1,1,100,1,2000,666.67],
        [247,666.665,133.035,439.37,-173.3,1,100,1,1000,333.33],
        [250,20,6.065,18.52,-6.39,1,100,1,40,0],
        [255,20.53,4.535,16.99,-7.92,1,100,1,41.06,0],
        [261,1333.335,314.335,926.35,-297.68,1,100,1,2000,666.67],
        [264,49.6,36.535,111.23,-38.16,1,100,1,100,-0.8],
        [270,15.96,1.435,11.76,-8.89,1,100,1,31.92,0],
        [271,-111.2,20.82,58.16,-16.52,1,100,1,100,-322.4],
        [278,612.78,120.095,396.02,-155.83,1,100,1,912.78,312.78],
        [282,255.755,4.705,160.36,-150.95,1,100,1,472.16,39.35],
        [286,20,5.695,18.14,-6.75,1,100,1,40,0],
        [296,666.665,135.29,441.85,-171.27,1,100,1,1000,333.33],
        [300,1333.335,349.275,962.2,-263.65,1,100,1,2000,666.67],
        [307,100,26.1,88.39,-36.19,1,100,1,200,0],
        [320,-30.865,21.045,58.35,-16.26,1,100,1,100,-161.73],
        [323,14.475,2.385,19.51,-14.74,1,100,1,100,-71.05],
        [331,59.65,2.585,41.67,-36.5,1,100,1,119.3,0],
        [334,100,33.38,95.69,-28.93,1,100,1,200,0],
        [345,40,9.425,34.35,-15.5,1,100,1,80,0],
        [353,-163.6,12.47,37.39,-12.45,1,100,1,100,-427.2],
        [355,-17,16.905,54.3,-20.49,1,100,1,100,-134],
        [356,21.2,3.16,105.34,-99.02,1,100,1,100,-57.6],
        [360,1333.335,308.445,921.62,-304.73,1,100,1,2000,666.67],
        [364,40,13.105,38.02,-11.81,1,100,1,80,0],
        [367,40,14.205,39.12,-10.71,1,100,1,80,0],
        [368,180,50.305,162.4,-61.79,1,100,1,360,0],
        [375,60,20.87,58.23,-16.49,1,100,1,120,0],
        [382,80,26.245,76.08,-23.59,1,100,1,160,0],
        [383,1333.335,308.365,921.52,-304.79,1,100,1,2000,666.67],
        [387,60,14.57,51.94,-22.8,1,100,1,120,0],
        [394,98.36,6.025,70.15,-58.1,1,100,1,196.72,0],
        [402,1333.335,321.67,934.81,-291.47,1,100,1,2000,666.67],
        [405,-13.4,26,88.33,-36.33,1,100,1,100,-126.8],
        [406,80,28.125,77.91,-21.66,1,100,1,160,0],
        [410,1333.335,314.26,926.26,-297.74,1,100,1,2000,666.67],
        [411,60,18.61,55.98,-18.76,1,100,1,120,0],
        [412,20,5.725,18.19,-6.74,1,100,1,40,0],
        [419,4.525,0.385,3.31,-2.54,1,100,1,9.05,0],
        [421,107.43,2.12,72.95,-68.71,1,100,1,214.86,0],
        [422,60,20.335,57.69,-17.02,1,100,1,120,0],
        [426,20,6.735,19.19,-5.72,1,100,1,40,0],
        [432,40,12.35,37.24,-12.54,1,100,1,80,0],
        [434,3.415,0.3,2.51,-1.91,1,100,1,6.83,0],
        [444,246.675,25.895,184.46,-132.67,1,100,1,493.35,0],
        [447,100,27.395,89.61,-34.82,1,100,1,200,0],
        [451,666.665,135.29,441.85,-171.27,1,100,1,1000,333.33],
        [465,20,4.86,17.33,-7.61,1,100,1,40,0],
        [468,120,39.205,113.97,-35.56,1,100,1,240,0],
        [469,-40.865,20.46,70.25,-29.33,1,100,1,100,-181.73],
        [473,60,16.36,53.7,-20.98,1,100,1,120,0],
        [479,270,77.575,243.61,-88.46,1,100,1,540,0],
        [480,-21.6,11.895,36.79,-13,1,100,1,100,-143.2],
        [484,21.8,5.43,62.23,-51.37,1,100,1,100,-56.4],
        [492,666.665,132.885,439.2,-173.43,1,100,1,1000,333.33],
        [493,32.35,13.245,38.13,-11.64,1,100,1,100,-35.3],
        [498,40,12.17,37.1,-12.76,1,100,1,80,0],
        [499,40,13.295,38.2,-11.61,1,100,1,80,0],
        [500,67.635,2.875,47.19,-41.44,1,100,1,135.27,0],
        [502,60,17.2,54.59,-20.19,1,100,1,120,0],
        [507,60,20.845,58.19,-16.5,1,100,1,120,0],
        [510,800,183.04,550.97,-184.89,1,100,1,1200,400],
        [518,-197.2,16.335,53.75,-21.08,1,100,1,100,-494.4],
        [524,600,112.24,387.88,-163.4,1,100,1,900,300],
        [534,40,13.93,38.83,-10.97,1,100,1,80,0],
        [537,300,77.17,261.7,-107.36,1,100,1,600,0],
        [545,-33.6,17.235,54.59,-20.12,1,100,1,100,-167.2],
        [551,32.535,41.375,116.07,-33.32,1,100,1,100,-34.93],
        [553,666.665,134.495,441.04,-172.05,1,100,1,1000,333.33],
        [559,41.61,11.435,36.34,-13.47,1,100,1,100,-16.78],
        [565,800,180.705,548.57,-187.16,1,100,1,1200,400],
        [574,466.665,98.14,313.01,-116.73,1,100,1,700,233.33],
        [578,600,112.385,388.17,-163.4,1,100,1,900,300],
        [585,666.665,134.275,440.69,-172.14,1,100,1,1000,333.33],
        [586,33.265,9.375,34.27,-15.52,1,100,1,100,-33.47],
        [592,35.815,13.125,38.02,-11.77,1,100,1,100,-28.37],
        [598,31.935,-0.7,126.16,-127.56,1,100,1,100,-36.13],
        [602,-39.665,18.29,55.67,-19.09,1,100,1,100,-179.33],
        [610,100,34.815,97.07,-27.44,1,100,1,200,0],
        [617,-1.265,13.14,38.05,-11.77,1,100,1,100,-102.53],
        [619,300,80.6,264.94,-103.74,1,100,1,600,0],
        [624,40,13.485,38.37,-11.4,1,100,1,80,0],
        [625,40,11.945,36.89,-13,1,100,1,80,0],
        [627,60,19.7,57.03,-17.63,1,100,1,120,0],
        [640,2761.14,0,99999,-99999,1,100,1,4188.95,1333.33],
        [654,40,11.805,36.73,-13.12,1,100,1,80,0],
        [660,-36.065,13.575,38.48,-11.33,1,100,1,100,-172.13],
        [664,666.665,134.495,441.04,-172.05,1,100,1,1000,333.33],
        [669,666.665,132.885,439.2,-173.43,1,100,1,1000,333.33],
        [670,40,13.95,38.85,-10.95,1,100,1,80,0],
        [676,-64.535,12.955,37.86,-11.95,1,100,1,100,-229.07],
        [688,29.745,13.035,37.94,-11.87,1,100,1,100,-40.51],
        [694,40,10.715,35.62,-14.19,1,100,1,80,0],
        [696,-2.6,6.685,19.14,-5.77,1,100,1,100,-105.2],
        [702,140.925,6.055,98.4,-86.29,1,100,1,281.85,0],
        [713,666.665,132.885,439.2,-173.43,1,100,1,1000,333.33],
        [715,32.615,13.465,38.37,-11.44,1,100,1,100,-34.77],
        [716,666.665,134.275,440.69,-172.14,1,100,1,1000,333.33],
        [717,5.23,1.185,4.44,-2.07,1,100,1,10.46,0],
        [721,80,26.665,76.52,-23.19,1,100,1,160,0],
        [726,23.135,25.83,75.62,-23.96,1,100,1,100,-53.73],
        [732,40,12.35,37.27,-12.57,1,100,1,80,0],
        [739,41.615,12.31,37.23,-12.61,1,100,1,100,-16.77],
        [744,110.06,2.16,74.73,-70.41,1,100,1,220.12,0],
        [747,40,12.815,37.72,-12.09,1,100,1,80,0],
        [749,80,24.79,74.55,-24.97,1,100,1,160,0],
        [750,300,74.665,258.91,-109.58,1,100,1,600,0],
        [756,14.995,13.39,38.28,-11.5,1,100,1,100,-70.01],
        [757,60,18.965,56.35,-18.42,1,100,1,120,0],
        [760,1333.335,269.81,882.86,-343.24,1,100,1,2000,666.67],
        [769,80,25.14,75.02,-24.74,1,100,1,160,0],
        [774,60,13.905,51.3,-23.49,1,100,1,120,0],
        [782,-56,11.47,36.37,-13.43,1,100,1,100,-212],
        [788,20,5.695,18.14,-6.75,1,100,1,40,0],
        [789,1333.335,314.42,926.47,-297.63,1,100,1,2000,666.67],
        [793,-213.865,20.7,58.06,-16.66,1,100,1,100,-527.73],
        [806,40,13.355,38.26,-11.55,1,100,1,80,0],
        [809,1333.335,307.335,920.31,-305.64,1,100,1,2000,666.67],
        [810,124.53,26.6,101.32,-48.12,1,100,1,249.06,0],
        [811,666.665,134.495,441.04,-172.05,1,100,1,1000,333.33],
        [812,-14.265,12.58,37.49,-12.33,1,100,1,100,-128.53],
        [813,2666.665,539.345,1765.36,-686.67,1,100,1,4000,1333.33],
        [819,100,26.58,88.87,-35.71,1,100,1,200,0],
        [820,20,6.705,19.16,-5.75,1,100,1,40,0],
        [822,40,11.905,36.8,-12.99,1,100,1,80,0],
        [836,120,28.465,103.18,-46.25,1,100,1,240,0],
        [837,80,22.83,72.71,-27.05,1,100,1,160,0],
        [844,800,182.77,550.69,-185.15,1,100,1,1200,400],
        [853,1200,227.25,779.29,-324.79,1,100,1,1800,600],
        [857,293.335,59.905,196.98,-77.17,1,100,1,440,146.67],
        [861,320,64.565,214.13,-85,1,100,1,480,160],
        [863,40,11.795,36.72,-13.13,1,100,1,80,0],
        [869,0.065,4.74,17.21,-7.73,1,100,1,100,-99.87],
        [872,1333.335,321.45,934.54,-291.64,1,100,1,2000,666.67],
        [873,-18.335,12.34,37.27,-12.59,1,100,1,100,-136.67],
        [877,-8.2,-0.285,60.51,-61.08,1,100,1,100,-116.4],
        [880,600,114.62,390.4,-161.16,1,100,1,900,300],
        [893,401.01,-6.085,249.65,-261.82,1,100,1,769.94,32.08],
        [895,26.88,2.465,19.86,-14.93,1,100,1,53.76,0],
        [913,60,20.76,58.12,-16.6,1,100,1,120,0],
        [917,40,12.855,37.76,-12.05,1,100,1,80,0],
        [918,100,34.305,96.56,-27.95,1,100,1,200,0],
        [920,40,13.365,38.29,-11.56,1,100,1,80,0],
        [922,-46.865,13.825,51.11,-23.46,1,100,1,100,-193.73],
        [924,31.465,48.96,148.65,-50.73,1,100,1,100,-37.07],
        [931,100,26.57,88.83,-35.69,1,100,1,200,0],
        [936,666.665,132.285,438.72,-174.15,1,100,1,1000,333.33],
        [942,140,39.45,126.73,-47.83,1,100,1,280,0],
        [945,-86.135,12.71,37.58,-12.16,1,100,1,100,-272.27],
        [971,360,89.715,311.52,-132.09,1,100,1,720,0],
        [985,80,27.34,77.14,-22.46,1,100,1,160,0],
        [986,80,27.545,77.35,-22.26,1,100,1,160,0],
        [987,16.265,1.465,11.99,-9.06,1,100,1,32.53,0],
        [989,11.665,10.685,35.62,-14.25,1,100,1,100,-76.67],
        [993,60,15.885,53.24,-21.47,1,100,1,120,0],
        [995,-179.935,6.11,18.56,-6.34,1,100,1,100,-459.87],
        [997,2666.665,639.94,1865.83,-585.95,1,100,1,4000,1333.33],
        [1000,194.335,64.72,189.31,-59.87,1,100,1,300,88.67],
        [1011,140,38.9,126.09,-48.29,1,100,1,280,0],
...
    ])

    ppc['gencost'] = array([
        [2, 0, 0, 3, 0, 10.258323, 0.0000001354],
        [2, 0, 0, 3, 0, 35.739304, 0.0000001354],
        [2, 0, 0, 3, 0, 25.382856, 0.0000001354],
        [2, 0, 0, 3, 0, 22.57053, 0.0000001354],
        [2, 0, 0, 3, 0, 24.410748, 0.0000001354],
        [2, 0, 0, 3, 0, 37.397266, 0.0000001354],
        [2, 0, 0, 3, 0, 14.602967, 0.0000001354],
        [2, 0, 0, 3, 0, 6.171706, 0.0000001354],
        [2, 0, 0, 3, 0, 26.392883, 0.0000001354],
        [2, 0, 0, 3, 0, 29.720369, 0.0000001354],
        [2, 0, 0, 3, 0, 35.601645, 0.0000001354],
        [2, 0, 0, 3, 0, 19.829521, 0.0000001354],
        [2, 0, 0, 3, 0, 15.01068, 0.0000001354],
        [2, 0, 0, 3, 0, 9.860522, 0.0000001354],
        [2, 0, 0, 3, 0, 11.144193, 0.0000001354],
        [2, 0, 0, 3, 0, 0.348478, 0.0000001354],
        [2, 0, 0, 3, 0, 45.48034, 0.0000001354],
        [2, 0, 0, 3, 0, 48.260283, 0.0000001354],
        [2, 0, 0, 3, 0, 28.185912, 0.0000001354],
        [2, 0, 0, 3, 0, 32.876654, 0.0000001354],
        [2, 0, 0, 3, 0, 29.050011, 0.0000001354],
        [2, 0, 0, 3, 0, 17.693424, 0.0000001354],
        [2, 0, 0, 3, 0, 28.179452, 0.0000001354],
        [2, 0, 0, 3, 0, 16.78295, 0.0000001354],
        [2, 0, 0, 3, 0, 34.077711, 0.0000001354],
        [2, 0, 0, 3, 0, 25.254765, 0.0000001354],
        [2, 0, 0, 3, 0, 25.888316, 0.0000001354],
        [2, 0, 0, 3, 0, 38.064806, 0.0000001354],
        [2, 0, 0, 3, 0, 35.093256, 0.0000001354],
        [2, 0, 0, 3, 0, 33.895058, 0.0000001354],
        [2, 0, 0, 3, 0, 42.531078, 0.0000001354],
        [2, 0, 0, 3, 0, 44.703485, 0.0000001354],
        [2, 0, 0, 3, 0, 19.144125, 0.0000001354],
        [2, 0, 0, 3, 0, 39.146988, 0.0000001354],
        [2, 0, 0, 3, 0, 32.283038, 0.0000001354],
        [2, 0, 0, 3, 0, 33.961897, 0.0000001354],
        [2, 0, 0, 3, 0, 24.001968, 0.0000001354],
        [2, 0, 0, 3, 0, 26.922445, 0.0000001354],
        [2, 0, 0, 3, 0, 28.934071, 0.0000001354],
        [2, 0, 0, 3, 0, 29.194991, 0.0000001354],
        [2, 0, 0, 3, 0, 39.793039, 0.0000001354],
        [2, 0, 0, 3, 0, 43.399752, 0.0000001354],
        [2, 0, 0, 3, 0, 20.054935, 0.0000001354],
        [2, 0, 0, 3, 0, 18.252906, 0.0000001354],
        [2, 0, 0, 3, 0, 41.981874, 0.0000001354],
        [2, 0, 0, 3, 0, 42.98204, 0.0000001354],
        [2, 0, 0, 3, 0, 16.220225, 0.0000001354],
        [2, 0, 0, 3, 0, 21.265424, 0.0000001354],
        [2, 0, 0, 3, 0, 17.662994, 0.0000001354],
        [2, 0, 0, 3, 0, 15.838148, 0.0000001354],
        [2, 0, 0, 3, 0, 6.883722, 0.0000001354],
        [2, 0, 0, 3, 0, 118.07669, 0.0000001354],
        [2, 0, 0, 3, 0, 19.82896, 0.0000001354],
        [2, 0, 0, 3, 0, 18.889404, 0.0000001354],
        [2, 0, 0, 3, 0, 32.470152, 0.0000001354],
        [2, 0, 0, 3, 0, 26.491829, 0.0000001354],
        [2, 0, 0, 3, 0, 24.981434, 0.0000001354],
        [2, 0, 0, 3, 0, 38.427501, 0.0000001354],
        [2, 0, 0, 3, 0, 38.894704, 0.0000001354],
        [2, 0, 0, 3, 0, 34.810352, 0.0000001354],
        [2, 0, 0, 3, 0, 32.089221, 0.0000001354],
        [2, 0, 0, 3, 0, 24.960517, 0.0000001354],
        [2, 0, 0, 3, 0, 40.587389, 0.0000001354],
        [2, 0, 0, 3, 0, 36.44582, 0.0000001354],
        [2, 0, 0, 3, 0, 6.803769, 0.0000001354],
        [2, 0, 0, 3, 0, 27.474887, 0.0000001354],
        [2, 0, 0, 3, 0, 28.188143, 0.0000001354],
        [2, 0, 0, 3, 0, 27.672537, 0.0000001354],
        [2, 0, 0, 3, 0, 37.476158, 0.0000001354],
        [2, 0, 0, 3, 0, 38.32436, 0.0000001354],
        [2, 0, 0, 3, 0, 29.361646, 0.0000001354],
        [2, 0, 0, 3, 0, 46.894604, 0.0000001354],
        [2, 0, 0, 3, 0, 33.066585, 0.0000001354],
        [2, 0, 0, 3, 0, 10.656581, 0.0000001354],
        [2, 0, 0, 3, 0, 15.138451, 0.0000001354],
        [2, 0, 0, 3, 0, 34.209845, 0.0000001354],
        [2, 0, 0, 3, 0, 24.094682, 0.0000001354],
        [2, 0, 0, 3, 0, 24.965438, 0.0000001354],
        [2, 0, 0, 3, 0, 23.765406, 0.0000001354],
        [2, 0, 0, 3, 0, 30.752977, 0.0000001354],
        [2, 0, 0, 3, 0, 22.474015, 0.0000001354],
        [2, 0, 0, 3, 0, 34.978644, 0.0000001354],
        [2, 0, 0, 3, 0, 30.995415, 0.0000001354],
        [2, 0, 0, 3, 0, 18.020307, 0.0000001354],
        [2, 0, 0, 3, 0, 22.902755, 0.0000001354],
        [2, 0, 0, 3, 0, 28.059178, 0.0000001354],
        [2, 0, 0, 3, 0, 31.565151, 0.0000001354],
        [2, 0, 0, 3, 0, 23.86504, 0.0000001354],
        [2, 0, 0, 3, 0, 19.68005, 0.0000001354],
        [2, 0, 0, 3, 0, 26.499589, 0.0000001354],
        [2, 0, 0, 3, 0, 28.385891, 0.0000001354],
        [2, 0, 0, 3, 0, 39.23531, 0.0000001354],
        [2, 0, 0, 3, 0, 31.599182, 0.0000001354],
        [2, 0, 0, 3, 0, 30.64784, 0.0000001354],
        [2, 0, 0, 3, 0, 38.31144, 0.0000001354],
        [2, 0, 0, 3, 0, 7.517541, 0.0000001354],
        [2, 0, 0, 3, 0, 14.951813, 0.0000001354],
        [2, 0, 0, 3, 0, 24.810462, 0.0000001354],
        [2, 0, 0, 3, 0, 79.708144, 0.0000001354],
        [2, 0, 0, 3, 0, 23.802999, 0.0000001354],
        [2, 0, 0, 3, 0, 34.702382, 0.0000001354],
        [2, 0, 0, 3, 0, 38.611659, 0.0000001354],
        [2, 0, 0, 3, 0, 7.619883, 0.0000001354],
        [2, 0, 0, 3, 0, 42.1954, 0.0000001354],
        [2, 0, 0, 3, 0, 7.253371, 0.0000001354],
        [2, 0, 0, 3, 0, 37.314915, 0.0000001354],
        [2, 0, 0, 3, 0, 31.383243, 0.0000001354],
        [2, 0, 0, 3, 0, 22.446061, 0.0000001354],
        [2, 0, 0, 3, 0, 27.981934, 0.0000001354],
        [2, 0, 0, 3, 0, 100.586864, 0.0000001354],
        [2, 0, 0, 3, 0, 33.204589, 0.0000001354],
        [2, 0, 0, 3, 0, 7.122779, 0.0000001354],
        [2, 0, 0, 3, 0, 18.6669, 0.0000001354],
        [2, 0, 0, 3, 0, 7.550981, 0.0000001354],
        [2, 0, 0, 3, 0, 35.604133, 0.0000001354],
        [2, 0, 0, 3, 0, 19.804309, 0.0000001354],
        [2, 0, 0, 3, 0, 26.144799, 0.0000001354],
        [2, 0, 0, 3, 0, 44.14781, 0.0000001354],
        [2, 0, 0, 3, 0, 35.562693, 0.0000001354],
        [2, 0, 0, 3, 0, 35.807424, 0.0000001354],
        [2, 0, 0, 3, 0, 39.446996, 0.0000001354],
        [2, 0, 0, 3, 0, 18.53867, 0.0000001354],
        [2, 0, 0, 3, 0, 30.90988, 0.0000001354],
        [2, 0, 0, 3, 0, 30.544167, 0.0000001354],
        [2, 0, 0, 3, 0, 35.965332, 0.0000001354],
        [2, 0, 0, 3, 0, 7.051011, 0.0000001354],
        [2, 0, 0, 3, 0, 42.356822, 0.0000001354],
        [2, 0, 0, 3, 0, 27.296003, 0.0000001354],
        [2, 0, 0, 3, 0, 30.938094, 0.0000001354],
        [2, 0, 0, 3, 0, 28.931033, 0.0000001354],
        [2, 0, 0, 3, 0, 22.588806, 0.0000001354],
        [2, 0, 0, 3, 0, 37.302716, 0.0000001354],
        [2, 0, 0, 3, 0, 37.977313, 0.0000001354],
        [2, 0, 0, 3, 0, 4.345048, 0.0000001354],
        [2, 0, 0, 3, 0, 22.462959, 0.0000001354],
        [2, 0, 0, 3, 0, 19.814769, 0.0000001354],
        [2, 0, 0, 3, 0, 8.0167, 0.0000001354],
        [2, 0, 0, 3, 0, 20.456068, 0.0000001354],
        [2, 0, 0, 3, 0, 44.670249, 0.0000001354],
        [2, 0, 0, 3, 0, 43.366752, 0.0000001354],
        [2, 0, 0, 3, 0, 36.105171, 0.0000001354],
        [2, 0, 0, 3, 0, 25.107671, 0.0000001354],
        [2, 0, 0, 3, 0, 37.943609, 0.0000001354],
        [2, 0, 0, 3, 0, 33.086316, 0.0000001354],
        [2, 0, 0, 3, 0, 36.303918, 0.0000001354],
        [2, 0, 0, 3, 0, 29.260622, 0.0000001354],
        [2, 0, 0, 3, 0, 98.992318, 0.0000001354],
        [2, 0, 0, 3, 0, 27.405063, 0.0000001354],
        [2, 0, 0, 3, 0, 17.378434, 0.0000001354],
        [2, 0, 0, 3, 0, 34.198047, 0.0000001354],
        [2, 0, 0, 3, 0, 36.694475, 0.0000001354],
        [2, 0, 0, 3, 0, 37.735549, 0.0000001354],
        [2, 0, 0, 3, 0, 8.912924, 0.0000001354],
        [2, 0, 0, 3, 0, 38.250898, 0.0000001354],
        [2, 0, 0, 3, 0, 14.979523, 0.0000001354],
        [2, 0, 0, 3, 0, 28.53811, 0.0000001354],
        [2, 0, 0, 3, 0, 39.424853, 0.0000001354],
        [2, 0, 0, 3, 0, 39.296805, 0.0000001354],
        [2, 0, 0, 3, 0, 14.861628, 0.0000001354],
        [2, 0, 0, 3, 0, 29.670276, 0.0000001354],
        [2, 0, 0, 3, 0, 33.798273, 0.0000001354],
        [2, 0, 0, 3, 0, 28.33667, 0.0000001354],
        [2, 0, 0, 3, 0, 18.404323, 0.0000001354],
        [2, 0, 0, 3, 0, 41.060039, 0.0000001354],
        [2, 0, 0, 3, 0, 32.08086, 0.0000001354],
        [2, 0, 0, 3, 0, 33.555466, 0.0000001354],
        [2, 0, 0, 3, 0, 13.210681, 0.0000001354],
        [2, 0, 0, 3, 0, 32.184103, 0.0000001354],
        [2, 0, 0, 3, 0, 16.825774, 0.0000001354],
        [2, 0, 0, 3, 0, 30.459416, 0.0000001354],
        [2, 0, 0, 3, 0, 31.825995, 0.0000001354],
        [2, 0, 0, 3, 0, 25.704435, 0.0000001354],
        [2, 0, 0, 3, 0, 113.881521, 0.0000001354],
        [2, 0, 0, 3, 0, 48.679477, 0.0000001354],
        [2, 0, 0, 3, 0, 37.090734, 0.0000001354],
        [2, 0, 0, 3, 0, 44.629615, 0.0000001354],
        [2, 0, 0, 3, 0, 4.688, 0.0000001354],
        [2, 0, 0, 3, 0, 7.924707, 0.0000001354],
        [2, 0, 0, 3, 0, 15.196866, 0.0000001354],
        [2, 0, 0, 3, 0, 31.536394, 0.0000001354],
        [2, 0, 0, 3, 0, 41.05166, 0.0000001354],
        [2, 0, 0, 3, 0, 36.290422, 0.0000001354],
        [2, 0, 0, 3, 0, 16.038621, 0.0000001354],
        [2, 0, 0, 3, 0, 32.583295, 0.0000001354],
        [2, 0, 0, 3, 0, 18.644095, 0.0000001354],
        [2, 0, 0, 3, 0, 25.524756, 0.0000001354],
        [2, 0, 0, 3, 0, 36.090071, 0.0000001354],
        [2, 0, 0, 3, 0, 43.804954, 0.0000001354],
        [2, 0, 0, 3, 0, 26.393553, 0.0000001354],
        [2, 0, 0, 3, 0, 47.182687, 0.0000001354],
        [2, 0, 0, 3, 0, 14.350508, 0.0000001354],
        [2, 0, 0, 3, 0, 14.275729, 0.0000001354],
        [2, 0, 0, 3, 0, 24.479866, 0.0000001354],
        [2, 0, 0, 3, 0, 114.612148, 0.0000001354],
        [2, 0, 0, 3, 0, 32.065876, 0.0000001354],
        [2, 0, 0, 3, 0, 29.385085, 0.0000001354],
        [2, 0, 0, 3, 0, 36.659346, 0.0000001354],
        [2, 0, 0, 3, 0, 4.6021, 0.0000001354],
        [2, 0, 0, 3, 0, 58.771001, 0.0000001354],
        [2, 0, 0, 3, 0, 15.431582, 0.0000001354],
...
    ])
    ppc['branch'] = array([
        [1074,802,0.00018,0.000781,0,39412,39412,39412,0,0,1,-30,30],
        [652,1103,0.002961,0.01669,0,319,1864,1864,0,0,1,-30,30],
        [856,592,0.00056,0.00432,0,7252,7252,7252,0,0,1,-30,30],
        [977,880,0.0002,0.00246,0,657,12799,12799,0,0,1,-30,30],
        [977,1007,0.0003,0.00377,0,1315,8353,8353,0,0,1,-30,30],
        [747,1330,0.00014,0.00057,0,53817,53817,53817,0,0,1,-30,30],
        [432,1330,0.00013,0.000729,0,42657,42657,42657,0,0,1,-30,30],
        [205,1330,0.00012,0.000581,0,53244,53244,53244,0,0,1,-30,30],
        [270,1330,0.00011,0.00064,0,48642,48642,48642,0,0,1,-30,30],
        [1206,1330,0.00019,0.00056,0,53416,53416,53416,0,0,1,-30,30],
        [902,1271,0.00062,0.004909,0,529,6384,6384,0,0,1,-30,30],
        [1349,1140,0.00007,0.00076,0,887,41388,41388,0,0,1,-30,30],
        [1349,1310,0.00066,0.00622,0,1611,5051,5051,0,0,1,-30,30],
        [1349,313,0.00054,0.00752,0,4190,4190,4190,0,0,1,-30,30],
        [1349,7,0.00105,0.00877,0,1315,3577,3577,0,0,1,-30,30],
        [16,1297,0.00008,0.00091,0,657,34578,34578,0,0,1,-30,30],
        [16,691,0.00056,0.00719,0,953,4380,4380,0,0,1,-30,30],
        [356,819,0.000531,0.002039,0,319,14992,14992,0,0,1,-30,30],
        [356,720,0.008659,0.03769,0,300,817,817,0,0,1,-30,30],
        [356,1304,0.003849,0.021099,0,1473,1473,1473,0,0,1,-30,30],
        [356,1235,0.00688,0.035969,0,300,863,863,0,0,1,-30,30],
        [356,1000,0.006729,0.03713,0,838,838,838,0,0,1,-30,30],
        [356,505,0.00111,0.006651,0,414,4685,4685,0,0,1,-30,30],
        [356,82,0.0023,0.008909,0,3433,3433,3433,0,0,1,-30,30],
        [356,382,0.000841,0.00313,0,9747,9747,9747,0,0,1,-30,30],
        [356,785,0.003521,0.017479,0,300,1772,1772,0,0,1,-30,30],
        [455,90,0.000039,0.00025,0,510,124840,124840,0,0,1,-30,30],
        [452,340,0.000159,0.000729,0,357,42335,42335,0,0,1,-30,30],
        [1248,1088,0.005281,0.032099,0,395,972,972,0,0,1,-30,30],
        [1248,1088,0.005651,0.029419,0,376,1055,1055,0,0,1,-30,30],
        [121,550,0.000271,0.00036,0,70101,70101,70101,0,0,1,-30,30],
        [1264,1027,0.00044,0.00143,0,472,21113,21113,0,0,1,-30,30],
        [1264,591,0.000159,0.00074,0,453,41734,41734,0,0,1,-30,30],
        [330,288,0.00019,0.000591,0,338,50883,50883,0,0,1,-30,30],
        [758,431,0.00019,0.00087,0,35472,35472,35472,0,0,1,-30,30],
        [956,732,0.002591,0.013659,0,319,2273,2273,0,0,1,-30,30],
        [956,1066,0.00305,0.01168,0,2617,2617,2617,0,0,1,-30,30],
        [51,156,0.000159,0.000599,0,433,50969,50969,0,0,1,-30,30],
        [51,156,0.000159,0.00062,0,395,49351,49351,0,0,1,-30,30],
        [488,732,0.00101,0.004229,0,472,7265,7265,0,0,1,-30,30],
        [488,647,0.00319,0.018651,0,453,1670,1670,0,0,1,-30,30],
        [488,1066,0.000729,0.00337,0,9162,9162,9162,0,0,1,-30,30],
        [162,170,0.002961,0.012831,0,281,2399,2399,0,0,1,-30,30],
        [162,1158,0.000591,0.00339,0,9180,9180,9180,0,0,1,-30,30],
        [1296,353,0.00024,0.001219,0,25425,25425,25425,0,0,1,-30,30],
        [883,441,0.006219,0.036341,0,376,857,857,0,0,1,-30,30],
        [883,879,0.001841,0.01193,0,472,2617,2617,0,0,1,-30,30],
        [491,1058,0.001409,0.01113,0,414,2816,2816,0,0,1,-30,30],
        [491,37,0.00151,0.00768,0,376,4036,4036,0,0,1,-30,30],
        [491,456,0.00599,0.03313,0,395,939,939,0,0,1,-30,30],
        [491,502,0.001771,0.010151,0,357,3066,3066,0,0,1,-30,30],
        [701,734,0.00074,0.00311,0,9881,9881,9881,0,0,1,-30,30],
        [701,734,0.000729,0.003159,0,9744,9744,9744,0,0,1,-30,30],
        [480,1136,0.005271,0.01906,0,281,1598,1598,0,0,1,-30,30],
        [480,803,0.00906,0.053151,0,319,586,586,0,0,1,-30,30],
        [480,272,0.00405,0.0153,0,1996,1996,1996,0,0,1,-30,30],
        [984,795,0.00055,0.003961,0,395,7899,7899,0,0,1,-30,30],
        [984,795,0.00055,0.003729,0,338,8381,8381,0,0,1,-30,30],
        [984,236,0.00107,0.007789,0,414,4018,4018,0,0,1,-30,30],
        [984,236,0.00112,0.00775,0,472,4034,4034,0,0,1,-30,30],
        [984,236,0.001031,0.00775,0,4041,4041,4041,0,0,1,-30,30],
        [984,359,0.00062,0.003219,0,9636,9636,9636,0,0,1,-30,30],
        [984,130,0.00068,0.002659,0,414,11510,11510,0,0,1,-30,30],
        [1336,61,0.00193,0.012479,0,491,2502,2502,0,0,1,-30,30],
        [1336,446,0.001159,0.007229,0,4315,4315,4315,0,0,1,-30,30],
        [1336,437,0.00137,0.008729,0,395,3575,3575,0,0,1,-30,30],
        [1336,437,0.001401,0.00855,0,433,3646,3646,0,0,1,-30,30],
        [1336,437,0.001331,0.008521,0,433,3663,3663,0,0,1,-30,30],
        [1031,324,0.00031,0.00081,0,281,36421,36421,0,0,1,-30,30],
        [1031,1174,0.000341,0.00119,0,281,25518,25518,0,0,1,-30,30],
        [1031,671,0.00031,0.001281,0,376,23967,23967,0,0,1,-30,30],
        [1031,643,0.00094,0.0035,0,433,8717,8717,0,0,1,-30,30],
        [1236,1025, 7e-05,0.000651,0,48244,48244,48244,0,0,1,-30,30],
        [808,552,0.00019,0.00124,0,491,25180,25180,0,0,1,-30,30],
        [808,431,0.000331,0.002539,0,433,12337,12337,0,0,1,-30,30],
        [471,428,0.0016,0.02113,0,1491,1491,1491,0,0,1,-30,30],
        [1128,780,0.000909,0.004711,0,357,6584,6584,0,0,1,-30,30],
        [1128,780,0.00088,0.004969,0,319,6260,6260,0,0,1,-30,30],
        [1,1254,0.001841,0.0088,0,3514,3514,3514,0,0,1,-30,30],
        [1,1184,0.01013,0.04238,0,395,725,725,0,0,1,-30,30],
        [1060,435,0.00059,0.00802,0,723,3928,3928,0,0,1,-30,30],
        [1060,435,0.00054,0.0079,0,657,3990,3990,0,0,1,-30,30],
        [1060,593,0.00171,0.02128,0,986,1480,1480,0,0,1,-30,30],
        [1060,593,0.00174,0.02084,0,854,1511,1511,0,0,1,-30,30],
        [1060,951,0.00086,0.01433,0,1151,2201,2201,0,0,1,-30,30],
        [1060,951,0.00087,0.01404,0,723,2246,2246,0,0,1,-30,30],
        [1060,579,0.00126,0.01447,0,1118,2175,2175,0,0,1,-30,30],
        [1060,834,0.00122,0.01509,0,1052,2087,2087,0,0,1,-30,30],
        [1060,834,0.00154,0.019,0,1282,1658,1658,0,0,1,-30,30],
        [732,729,0.00474,0.03564,0,472,879,879,0,0,1,-30,30],
        [732,871,0.006,0.047849,0,433,656,656,0,0,1,-30,30],
        [732,768,0.008039,0.03375,0,281,911,911,0,0,1,-30,30],
        [996,1066, 2.1e-05,0.000211,0,510,148968,148968,0,0,1,-30,30],
        [1202,557,0.00045,0.002341,0,13251,13251,13251,0,0,1,-30,30],
        [400,1273,0.000669,0.004281,0,433,7291,7291,0,0,1,-30,30],
        [1354,1273,0.00068,0.00419,0,7442,7442,7442,0,0,1,-30,30],
        [462,1037,0.000729,0.00431,0,510,7227,7227,0,0,1,-30,30],
        [462,1037,0.000591,0.004651,0,453,6738,6738,0,0,1,-30,30],
        [462,1289,0.00099,0.005081,0,338,6103,6103,0,0,1,-30,30],
        [227,1108,0.00212,0.013031,0,2393,2393,2393,0,0,1,-30,30],
        [227,529,0.002159,0.01275,0,2443,2443,2443,0,0,1,-30,30],
        [1256,559,0.00025,0.00095,0,32156,32156,32156,0,0,1,-30,30],
        [1256,559,0.000271,0.00089,0,33953,33953,33953,0,0,1,-30,30],
        [1256,407,0.001961,0.012409,0,281,2515,2515,0,0,1,-30,30],
        [1256,1205,0.00044,0.00207,0,472,14927,14927,0,0,1,-30,30],
        [1256,1233,0.000469,0.00143,0,529,20990,20990,0,0,1,-30,30],
        [1256,950,0.001271,0.01406,0,529,2238,2238,0,0,1,-30,30],
        [1256,950,0.00124,0.013021,0,529,2415,2415,0,0,1,-30,30],
        [1256,1305,0.000409,0.00239,0,13028,13028,13028,0,0,1,-30,30],
        [1256,31,0.00094,0.005,0,338,6209,6209,0,0,1,-30,30],
        [1256,438,0.000219,0.0007,0,529,43067,43067,0,0,1,-30,30],
        [1256,980, 6e-05,0.00025,0,122861,122861,122861,0,0,1,-30,30],
        [1256,774, 5e-05,0.000229,0,134762,134762,134762,0,0,1,-30,30],
        [569,398,0.00019,0.000909,0,34015,34015,34015,0,0,1,-30,30],
        [331,820,0.001711,0.00782,0,3946,3946,3946,0,0,1,-30,30],
        [331,986,0.002651,0.01176,0,319,2621,2621,0,0,1,-30,30],
        [1127,55,0.001409,0.010599,0,2955,2955,2955,0,0,1,-30,30],
        [1127,781,0.001419,0.010219,0,3062,3062,3062,0,0,1,-30,30],
        [112,593,0.00013,0.00212,0,756,14872,14872,0,0,1,-30,30],
        [112,109,0.00026,0.00313,0,1282,10058,10058,0,0,1,-30,30],
        [676,332,0.0047,0.0318,0,376,983,983,0,0,1,-30,30],
        [676,983,0.00136,0.00768,0,338,4050,4050,0,0,1,-30,30],
        [676,526,0.005669,0.027789,0,300,1114,1114,0,0,1,-30,30],
        [1061,911,0.004409,0.033091,0,281,947,947,0,0,1,-30,30],
        [1061,204,0.01056,0.044469,0,692,692,692,0,0,1,-30,30],
        [1061,1042,0.01963,0.07736,0,338,396,396,0,0,1,-30,30],
        [1061,1083,0.01157,0.04694,0,357,654,654,0,0,1,-30,30],
        [885,116,0.000479,0.00255,0,357,12175,12175,0,0,1,-30,30],
        [1107,116,0.000469,0.00236,0,13128,13128,13128,0,0,1,-30,30],
        [171,218,0.01237,0.067039,0,281,464,464,0,0,1,-30,30],
        [171,1234,0.0132,0.056229,0,281,547,547,0,0,1,-30,30],
        [602,619,0.00026,0.001711,0,18252,18252,18252,0,0,1,-30,30],
        [602,619,0.000271,0.001669,0,18682,18682,18682,0,0,1,-30,30],
        [993,782,0.000211,0.000401,0,69711,69711,69711,0,0,1,-30,30],
        [1199,857,0.00105,0.005159,0,6000,6000,6000,0,0,1,-30,30],
        [1035,985,0.00212,0.00931,0,319,3309,3309,0,0,1,-30,30],
        [80,982,0.000151,0.00068,0,45348,45348,45348,0,0,1,-30,30],
        [798,730,0.00019,0.00082,0,37527,37527,37527,0,0,1,-30,30],
        [757,986,0.003219,0.01405,0,300,2192,2192,0,0,1,-30,30],
        [966,1339,0.007271,0.033159,0,281,931,931,0,0,1,-30,30],
        [966,1171,0.006659,0.03132,0,300,987,987,0,0,1,-30,30],
        [511,414,0.00057,0.00668,0,1480,4712,4712,0,0,1,-30,30],
        [511,1029,0.00057,0.00758,0,1414,4156,4156,0,0,1,-30,30],
        [511,1029,0.00039,0.00607,0,821,5194,5194,0,0,1,-30,30],
        [511,239,0.00155,0.0179,0,1759,1759,1759,0,0,1,-30,30],
        [511,690,0.00036,0.00485,0,1545,6495,6495,0,0,1,-30,30],
        [888,245,0.000581,0.004229,0,338,7400,7400,0,0,1,-30,30],
        [888,1185,0.00056,0.00431,0,7268,7268,7268,0,0,1,-30,30],
        [888,858,0.003099,0.020531,0,472,1522,1522,0,0,1,-30,30],
        [888,476,0.00118,0.016919,0,510,1863,1863,0,0,1,-30,30],
        [888,778,0.00188,0.01407,0,2226,2226,2226,0,0,1,-30,30],
        [888,728,0.00545,0.04082,0,357,768,768,0,0,1,-30,30],
        [1058,55,0.00214,0.01639,0,453,1912,1912,0,0,1,-30,30],
        [1058,710,0.002479,0.01549,0,2014,2014,2014,0,0,1,-30,30],
        [1164,1313,0.000159,0.001229,0,472,25490,25490,0,0,1,-30,30],
        [1164,963,0.00026,0.00162,0,453,19252,19252,0,0,1,-30,30],
        [1164,1006,0.000159,0.00113,0,376,27681,27681,0,0,1,-30,30],
        [1164,1281,0.000461,0.003219,0,472,9714,9714,0,0,1,-30,30],
        [1164,634,0.000159,0.001229,0,25490,25490,25490,0,0,1,-30,30],
        [233,61,0.000229,0.00139,0,376,22423,22423,0,0,1,-30,30],
        [412,61,0.0002,0.00156,0,338,20084,20084,0,0,1,-30,30],
        [193,63,0.00145,0.00824,0,281,3776,3776,0,0,1,-30,30],
        [193,61,0.00069,0.005,0,491,6259,6259,0,0,1,-30,30],
        [118,558,0.00036,0.00455,0,1809,6921,6921,0,0,1,-30,30],
        [118,558,0.00036,0.00453,0,1776,6952,6952,0,0,1,-30,30],
        [1203,1102,0.00066,0.00997,0,1348,3162,3162,0,0,1,-30,30],
        [1203,1102,0.00064,0.01016,0,986,3103,3103,0,0,1,-30,30],
        [914,718,0.000099,0.00044,0,529,70039,70039,0,0,1,-30,30],
        [718,663, 6e-05,0.000469,0,66806,66806,66806,0,0,1,-30,30],
        [718,234, 3.9e-05,0.000341,0,92032,92032,92032,0,0,1,-30,30],
        [718,1012,0.002531,0.01943,0,433,1613,1613,0,0,1,-30,30],
        [718,1037,0.00945,0.06418,0,414,487,487,0,0,1,-30,30],
        [1332,32,0.000591,0.002831,0,357,10923,10923,0,0,1,-30,30],
        [1019,32,0.00087,0.00387,0,7964,7964,7964,0,0,1,-30,30],
        [91,784,0.0015,0.01785,0,1183,1764,1764,0,0,1,-30,30],
        [91,784,0.00147,0.0182,0,1151,1730,1730,0,0,1,-30,30],
        [249,81,0.00151,0.0113,0,376,2771,2771,0,0,1,-30,30],
        [249,81,0.001479,0.011521,0,395,2720,2720,0,0,1,-30,30],
        [249,1333,0.00174,0.010341,0,414,3013,3013,0,0,1,-30,30],
        [249,1333,0.001659,0.01206,0,453,2595,2595,0,0,1,-30,30],
        [1189,291,0.00069,0.000479,0,37606,37606,37606,0,0,1,-30,30],
        [1189,1163,0.00044,0.00139,0,21666,21666,21666,0,0,1,-30,30],
        [142,1183,0.002039,0.01601,0,1958,1958,1958,0,0,1,-30,30],
        [142,1086,0.01349,0.05662,0,357,543,543,0,0,1,-30,30],
        [142,39,0.00082,0.00438,0,300,7089,7089,0,0,1,-30,30],
        [142,39,0.0008,0.004461,0,281,6970,6970,0,0,1,-30,30],
        [142,755,0.001091,0.00888,0,453,3531,3531,0,0,1,-30,30],
        [142,755,0.00111,0.007039,0,491,4433,4433,0,0,1,-30,30],
        [373,1220,0.000849,0.00537,0,433,5811,5811,0,0,1,-30,30],
        [1251,1295,0.00061,0.00275,0,357,11214,11214,0,0,1,-30,30],
        [900,1119,0.00141,0.0188,0,1315,1676,1676,0,0,1,-30,30],
        [900,955,0.00121,0.01427,0,1545,2206,2206,0,0,1,-30,30],
        [484,1181,0.001711,0.007159,0,338,4292,4292,0,0,1,-30,30],
        [484,1272,0.00545,0.02381,0,300,1294,1294,0,0,1,-30,30],
        [484,630,0.000771,0.004331,0,7181,7181,7181,0,0,1,-30,30],
        [484,405,0.00414,0.03282,0,453,955,955,0,0,1,-30,30],
        [484,917,0.00264,0.011521,0,338,2673,2673,0,0,1,-30,30],
        [484,926,0.00261,0.011,0,376,2795,2795,0,0,1,-30,30],
        [484,1098,0.00239,0.00919,0,319,3327,3327,0,0,1,-30,30],
        [484,424,0.000539,0.00226,0,13596,13596,13596,0,0,1,-30,30],
...
    ])

    return ppc